Version 4
SHEET 1 980 680
WIRE 528 80 464 80
WIRE -96 128 -112 128
WIRE 32 128 -16 128
WIRE 528 144 528 80
WIRE 736 144 528 144
WIRE 32 176 32 128
WIRE 240 176 32 176
WIRE 736 176 592 160
WIRE 240 208 32 208
WIRE 736 208 672 208
WIRE 976 224 928 224
WIRE 240 240 208 240
WIRE 736 240 656 240
WIRE -96 256 -112 256
WIRE 32 256 32 208
WIRE 32 256 -16 256
WIRE 496 256 432 256
WIRE 544 256 496 256
WIRE 656 256 656 240
WIRE 656 256 624 256
WIRE 240 272 144 272
WIRE 736 272 624 272
WIRE 240 304 208 304
WIRE 736 304 688 304
WIRE 240 336 208 336
WIRE 592 368 592 240
WIRE 688 432 688 304
WIRE 704 432 688 432
WIRE 624 448 624 272
WIRE 624 448 576 448
WIRE -32 464 -32 432
WIRE 112 464 112 432
WIRE 576 464 576 448
WIRE 704 464 704 432
WIRE -32 576 -32 544
WIRE 112 576 112 544
WIRE 576 592 576 544
WIRE 704 608 704 544
FLAG 496 256 Out
FLAG -112 256 0
FLAG 208 240 0
FLAG 80 272 0
FLAG 208 304 VR-
FLAG 208 336 VR+
FLAG -32 432 VR+
FLAG 112 432 VR+
FLAG -32 576 0
FLAG 112 576 0
FLAG -112 128 0
FLAG 464 80 0
FLAG 672 208 0
FLAG 592 368 0
FLAG 576 592 0
FLAG 704 608 0
SYMBOL cap 144 256 R90
WINDOW 0 0 32 VBottom 0
WINDOW 3 32 32 VTop 0
SYMATTR InstName C1
SYMATTR Value .01µ
SYMBOL res 528 272 R270
WINDOW 0 32 56 VTop 0
WINDOW 3 0 56 VBottom 0
SYMATTR InstName R1
SYMATTR Value 47K
SYMBOL voltage 0 256 R90
WINDOW 0 -32 56 VBottom 0
WINDOW 3 32 56 Invisible 0
WINDOW 123 0 0 Left 0
SYMATTR InstName V1
SYMATTR Value PULSE(0 10 0 0 0 10m 20m)
SYMATTR SpiceLine Rser=100 Cpar=100p
SYMBOL Misc\\battery -32 448 R0
WINDOW 0 -32 56 VBottom 0
WINDOW 3 32 56 VTop 0
WINDOW 123 0 0 Left 0
SYMATTR InstName V2
SYMATTR Value 16
SYMATTR SpiceLine Rser=0.1 Cpar=100p
SYMBOL Misc\\battery 112 448 R0
WINDOW 0 -32 56 VBottom 0
WINDOW 3 32 56 VTop 0
WINDOW 123 0 0 Left 0
SYMATTR InstName V3
SYMATTR Value -16
SYMATTR SpiceLine Rser=0.1 Cpar=100p
SYMBOL voltage 0 128 R90
WINDOW 0 -32 56 VBottom 0
WINDOW 3 32 56 Invisible 0
WINDOW 123 0 0 Left 0
SYMATTR InstName V4
SYMATTR Value SINE(0 5 10 0)
SYMATTR SpiceLine Rser=100 Cpar=100p
SYMBOL LF398 304 224 R0
SYMATTR InstName U1
SYMBOL LF398 800 192 R0
SYMATTR InstName U2
SYMBOL voltage 592 144 R0
WINDOW 123 0 0 Left 0
WINDOW 39 0 0 Left 0
SYMATTR InstName V5
SYMATTR Value PULSE(0 25 0 0 0 10m 20m)
SYMBOL Misc\\battery 576 448 R0
WINDOW 123 0 0 Left 0
WINDOW 39 24 132 Left 2
SYMATTR SpiceLine Rser=0.1 Cpar=100p
SYMATTR InstName V6
SYMATTR Value 16
SYMBOL Misc\\battery 704 448 R0
WINDOW 123 0 0 Left 0
WINDOW 39 24 132 Left 2
SYMATTR SpiceLine Rser=0.1 Cpar=100p
SYMATTR InstName V7
SYMATTR Value -16
TEXT 352 576 Left 0 !.tran 0 3 0 100u startup
TEXT 392 520 Left 0 !.include LF398.sub
