Version 4
SHEET 1 880 680
WIRE 160 128 -128 128
WIRE 160 160 -48 160
WIRE -48 176 -48 160
WIRE 432 176 336 176
WIRE 64 192 0 192
WIRE 160 192 64 192
WIRE 432 192 432 176
WIRE -128 224 -128 128
WIRE 0 224 0 192
WIRE 512 272 432 272
WIRE 432 288 432 272
FLAG -48 176 0
FLAG -128 304 0
FLAG 0 304 0
FLAG -128 128 modulatingSignal
FLAG 432 176 PAM
FLAG 64 192 impulseTrain
FLAG 432 352 0
FLAG 512 272 demodulatedSignal
SYMBOL SpecialFunctions\\sample 240 160 R0
SYMATTR InstName A1
SYMBOL voltage 0 208 R0
WINDOW 123 0 0 Left 0
WINDOW 39 0 0 Left 0
SYMATTR InstName V1
SYMATTR Value PULSE(-5 5 0 1n 1n 50n 100n)
SYMBOL voltage -128 208 R0
WINDOW 3 -221 84 Left 2
WINDOW 123 0 0 Left 0
WINDOW 39 0 0 Left 0
SYMATTR InstName V2
SYMATTR Value SINE(0 5 1meg)
SYMBOL res 416 176 R0
SYMATTR InstName R1
SYMATTR Value 1k
SYMBOL cap 416 288 R0
SYMATTR InstName C1
SYMATTR Value 1µ
TEXT -162 328 Left 2 !.tran 1ms
