Version 4
SHEET 1 880 1044
WIRE -16 96 -16 32
WIRE 96 96 -16 96
WIRE 416 96 320 96
WIRE 704 96 416 96
WIRE -304 160 -320 160
WIRE 96 160 -304 160
WIRE 112 160 96 160
WIRE 320 160 304 160
WIRE 448 160 320 160
WIRE 448 192 448 160
WIRE 704 192 704 176
WIRE 704 192 448 192
WIRE -320 208 -320 160
WIRE -128 224 -240 224
WIRE 96 224 -128 224
WIRE 448 224 448 192
WIRE 448 224 320 224
WIRE 704 256 704 192
WIRE 16 288 -64 288
WIRE 96 288 16 288
WIRE 464 288 320 288
WIRE -320 368 -320 288
WIRE -144 384 -144 288
WIRE 464 384 464 288
WIRE 704 416 704 320
WIRE -368 448 -800 448
WIRE -352 448 -368 448
WIRE -272 448 -288 448
WIRE -240 448 -240 224
WIRE -240 448 -272 448
WIRE 464 496 464 464
WIRE -704 544 -752 544
WIRE -368 544 -368 528
WIRE -368 544 -480 544
WIRE -272 544 -272 528
WIRE -272 544 -368 544
WIRE -176 544 -272 544
WIRE 16 544 16 288
WIRE 16 544 -176 544
WIRE -752 560 -752 544
WIRE -176 576 -176 544
WIRE -800 608 -800 448
WIRE -704 608 -800 608
WIRE -336 608 -480 608
WIRE -336 640 -336 608
WIRE -304 640 -336 640
WIRE -816 656 -928 656
WIRE -720 656 -816 656
WIRE -720 672 -720 656
WIRE -704 672 -720 672
WIRE -336 672 -336 640
WIRE -336 672 -480 672
WIRE -304 704 -304 640
WIRE -176 704 -176 656
WIRE -176 704 -304 704
WIRE -928 736 -1008 736
WIRE -704 736 -800 736
WIRE -688 736 -704 736
WIRE -176 736 -176 704
WIRE -928 752 -928 736
WIRE -928 848 -928 816
WIRE -176 864 -176 800
WIRE -800 912 -800 736
WIRE 16 912 16 544
WIRE 16 912 -800 912
FLAG 416 16 0
FLAG -16 32 0
FLAG -320 368 0
FLAG -144 384 0
FLAG 464 496 0
FLAG 704 416 0
FLAG -128 224 PWM
FLAG 464 288 ModulatingSignal
FLAG -304 160 Trigger
FLAG -176 864 0
FLAG -752 560 0
FLAG -928 848 0
FLAG -816 656 ppm
FLAG -1008 736 demodulated
SYMBOL Misc\\NE555 208 192 R0
SYMATTR InstName U1
SYMBOL voltage 416 112 R180
WINDOW 0 24 96 Left 2
WINDOW 3 24 16 Left 2
WINDOW 123 0 0 Left 0
WINDOW 39 0 0 Left 0
SYMATTR InstName V1
SYMATTR Value 5
SYMBOL voltage -48 288 R90
WINDOW 0 -32 56 VBottom 2
WINDOW 3 32 56 VTop 2
WINDOW 123 0 0 Left 0
WINDOW 39 0 0 Left 0
SYMATTR InstName V2
SYMATTR Value 5
SYMBOL voltage 464 368 R0
WINDOW 123 0 0 Left 0
WINDOW 39 0 0 Left 0
SYMATTR InstName V3
SYMATTR Value SINE(3 1.5 500)
SYMBOL voltage -320 192 R0
WINDOW 3 -384 119 Left 2
WINDOW 123 0 0 Left 0
WINDOW 39 0 0 Left 0
SYMATTR Value PULSE(5 0 0.05m 0 0 0.01m 1m)
SYMATTR InstName V4
SYMBOL cap 688 256 R0
SYMATTR InstName C1
SYMATTR Value 0.1µ
SYMBOL res 688 80 R0
SYMATTR InstName R1
SYMATTR Value 10k
SYMBOL Misc\\NE555 -592 640 R0
SYMATTR InstName U2
SYMBOL res -384 432 R0
WINDOW 0 -45 42 Left 2
WINDOW 3 -51 71 Left 2
SYMATTR InstName R2
SYMATTR Value 10k
SYMBOL res -288 432 R0
SYMATTR InstName R3
SYMATTR Value 10k
SYMBOL cap -288 432 R90
WINDOW 0 0 32 VBottom 2
WINDOW 3 35 33 VTop 2
SYMATTR InstName C2
SYMATTR Value 0.01µ
SYMBOL res -192 560 R0
SYMATTR InstName R4
SYMATTR Value 1k
SYMBOL cap -192 736 R0
SYMATTR InstName C3
SYMATTR Value 0.1µ
SYMBOL cap -944 752 R0
SYMATTR InstName C4
SYMATTR Value 1µ
SYMBOL res -944 640 R0
SYMATTR InstName R5
SYMATTR Value 1k
TEXT -800 920 Left 2 !.tran 10ms
